power-flow-agent/results/ieee300/2026-09-29/gpt-5.6-sol/llm_only_cot/traces/03_case300-ambiguous-011-s0.transcript.txt
==============================================================================
TRANSCRIPT  llm_only:cot  |  openrouter:openai/gpt-5.6-sol  |  case300  |  case300-ambiguous-011-s0  run 0
==============================================================================
date: 2026-09-29   seed: 0   difficulty: ambiguous   tool variant: load_split

[system]   (hash be09b0a3b7d2, from methods/llm_only_cot/method.json prompt_files)
You are a power system power-flow analysis assistant. You complete power system analysis tasks from natural-language requests. In this setting you have no tools: the user message gives you the full network data tables, and you must work out the requested AC power-flow results yourself from that data.

## Rules
- Never fabricate a numerical result. Every voltage, power, loss, or loading value you report must come from a solver output (tool-using methods) or from your own explicit computation on the data given (methods without tools).
- If the request is ambiguous, state the interpretation you are using in `summary`.
- Bus and line identifiers in the request are MATPOWER 1-based ids; use them as given, unless the request itself states a different indexing convention for that identifier (e.g. "(0-based)"), in which case convert it to the MATPOWER 1-based id.
- If you cannot complete the request, say so: set `converged` to false, leave the result arrays empty, and explain why in `cannot_answer`. Do not guess.
- Always reply in English, and only with the JSON object described under Output.

Reasoning mode: you MAY write a short step-by-step reasoning in plain text before the answer. The final JSON object must be the LAST thing in the response, inside a single ```json fenced block, and it must be the only JSON object in the response. Do not use curly braces in the reasoning text.

[user]   (complete message, stored at run time)
System base: 100 MVA. Every per-unit quantity below (r_pu, x_pu, b_pu) is defined on this base. Line and transformer impedances (r_pu, x_pu, b_pu) are already in per unit on this base, not ohms per km; do not convert them further. Branch thermal ratings are the rating_mva column (MVA). loading_percent of a branch is 100 * sqrt(p_from_mw^2 + q_from_mvar^2) / rating_mva on its from side (hv side for a transformer); a branch is overloaded above 100 %.

You are a power systems expert. Based on the following IEEE case300 test system data, calculate the AC power flow results.

## System Data (from pandapower network tables)

### Node Data (Bus Table: net.bus)

      name type zone  in_service
0        1    b  1.0        True
1        2    b  1.0        True
2        3    b  1.0        True
3        4    b  1.0        True
4        5    b  1.0        True
5        6    b  1.0        True
6        7    b  1.0        True
7        8    b  1.0        True
8        9    b  1.0        True
9       10    b  1.0        True
10      11    b  1.0        True
11      12    b  1.0        True
12      13    b  1.0        True
13      14    b  1.0        True
14      15    b  1.0        True
15      16    b  1.0        True
16      17    b  1.0        True
18      19    b  1.0        True
19      20    b  1.0        True
20      21    b  1.0        True
21      22    b  1.0        True
22      23    b  1.0        True
23      24    b  1.0        True
24      25    b  1.0        True
25      26    b  1.0        True
26      27    b  1.0        True
32      33    b  1.0        True
33      34    b  1.0        True
34      35    b  1.0        True
35      36    b  1.0        True
36      37    b  1.0        True
37      38    b  1.0        True
38      39    b  1.0        True
39      40    b  1.0        True
40      41    b  1.0        True
41      42    b  1.0        True
42      43    b  1.0        True
43      44    b  1.0        True
44      45    b  1.0        True
45      46    b  1.0        True
46      47    b  1.0        True
47      48    b  1.0        True
48      49    b  1.0        True
50      51    b  1.0        True
51      52    b  1.0        True
52      53    b  1.0        True
53      54    b  1.0        True
54      55    b  1.0        True
56      57    b  1.0        True
57      58    b  1.0        True
58      59    b  1.0        True
59      60    b  1.0        True
60      61    b  1.0        True
61      62    b  1.0        True
62      63    b  1.0        True
63      64    b  1.0        True
68      69    b  1.0        True
69      70    b  1.0        True
70      71    b  1.0        True
71      72    b  1.0        True
72      73    b  1.0        True
73      74    b  1.0        True
75      76    b  1.0        True
76      77    b  1.0        True
77      78    b  1.0        True
78      79    b  1.0        True
79      80    b  1.0        True
80      81    b  1.0        True
83      84    b  1.0        True
84      85    b  1.0        True
85      86    b  1.0        True
86      87    b  1.0        True
87      88    b  1.0        True
88      89    b  1.0        True
89      90    b  1.0        True
90      91    b  1.0        True
91      92    b  1.0        True
93      94    b  1.0        True
96      97    b  1.0        True
97      98    b  1.0        True
98      99    b  1.0        True
99     100    b  1.0        True
101    102    b  1.0        True
102    103    b  1.0        True
103    104    b  1.0        True
104    105    b  1.0        True
106    107    b  1.0        True
107    108    b  1.0        True
108    109    b  1.0        True
109    110    b  1.0        True
111    112    b  1.0        True
112    113    b  1.0        True
113    114    b  1.0        True
114    115    b  2.0        True
115    116    b  2.0        True
116    117    b  2.0        True
117    118    b  2.0        True
118    119    b  2.0        True
119    120    b  2.0        True
120    121    b  2.0        True
121    122    b  2.0        True
122    123    b  2.0        True
123    124    b  2.0        True
124    125    b  2.0        True
125    126    b  2.0        True
126    127    b  2.0        True
127    128    b  2.0        True
128    129    b  2.0        True
129    130    b  2.0        True
130    131    b  2.0        True
131    132    b  2.0        True
132    133    b  2.0        True
133    134    b  2.0        True
134    135    b  2.0        True
135    136    b  2.0        True
136    137    b  2.0        True
137    138    b  2.0        True
138    139    b  2.0        True
139    140    b  2.0        True
140    141    b  2.0        True
141    142    b  2.0        True
142    143    b  2.0        True
143    144    b  2.0        True
144    145    b  2.0        True
145    146    b  2.0        True
146    147    b  2.0        True
147    148    b  2.0        True
148    149    b  2.0        True
149    150    b  2.0        True
150    151    b  2.0        True
151    152    b  2.0        True
152    153    b  2.0        True
153    154    b  2.0        True
154    155    b  2.0        True
155    156    b  2.0        True
156    157    b  2.0        True
157    158    b  2.0        True
158    159    b  2.0        True
159    160    b  2.0        True
160    161    b  2.0        True
161    162    b  2.0        True
162    163    b  2.0        True
163    164    b  2.0        True
164    165    b  2.0        True
165    166    b  2.0        True
166    167    b  2.0        True
167    168    b  2.0        True
168    169    b  2.0        True
169    170    b  2.0        True
170    171    b  2.0        True
171    172    b  2.0        True
172    173    b  2.0        True
173    174    b  2.0        True
174    175    b  2.0        True
175    176    b  2.0        True
176    177    b  2.0        True
177    178    b  2.0        True
178    179    b  2.0        True
179    180    b  2.0        True
180    181    b  2.0        True
181    182    b  2.0        True
182    183    b  2.0        True
183    184    b  2.0        True
184    185    b  2.0        True
185    186    b  2.0        True
186    187    b  2.0        True
187    188    b  2.0        True
188    189    b  3.0        True
189    190    b  3.0        True
190    191    b  3.0        True
191    192    b  3.0        True
192    193    b  3.0        True
193    194    b  3.0        True
194    195    b  3.0        True
195    196    b  3.0        True
196    197    b  3.0        True
197    198    b  3.0        True
198    199    b  3.0        True
199    200    b  3.0        True
200    201    b  1.0        True
201    202    b  3.0        True
202    203    b  3.0        True
203    204    b  3.0        True
204    205    b  3.0        True
205    206    b  3.0        True
206    207    b  1.0        True
207    208    b  3.0        True
208    209    b  3.0        True
209    210    b  3.0        True
210    211    b  3.0        True
211    212    b  3.0        True
212    213    b  3.0        True
213    214    b  3.0        True
214    215    b  3.0        True
215    216    b  3.0        True
216    217    b  3.0        True
217    218    b  3.0        True
218    219    b  3.0        True
219    220    b  3.0        True
220    221    b  3.0        True
...

### Load Data (Load Table: net.load)

      bus         p_mw      q_mvar  in_service
0       1    81.080847   44.144016        True
1       2    59.472460   15.930123        True
2       3    20.452314    0.000000        True
3       5   324.594033  119.538879        True
4       6   114.543628   39.135740        True
5       8    60.925197   13.538933        True
6       9    87.827489   39.339396        True
7      10   158.993966   34.292816        True
8      11    87.962116   22.255475        True
9      13    63.626636   10.970110        True
10     14   164.415576   61.655841        True
11     15   121.583591   22.071212        True
12     17   585.455691  229.590467        True
13     20   640.240285  126.989809        True
14     21    78.181411    1.015343        True
15     22    88.784846   25.210512        True
16     23    21.720260    7.240087        True
17     25    43.749658   11.666575        True
18     26    27.547203    8.854458        True
19     27    65.324720   12.307556        True
20     33    56.951220    6.212860        True
21     37    90.291813   33.992212        True
22     38   154.254356   17.913409        True
23     40    44.713834  -20.412837        True
24     41    90.887303    0.000000        True
25     43    36.219519    8.358351        True
26     44   212.627069   31.621461        True
27     47    59.767149   12.159523        True
28     48    43.951831   20.367922        True
29     49    96.413462   27.247283        True
30     52    57.811517   26.536434        True
31     53    73.431505    3.192674        True
32     54     9.973785    0.997378        True
33     55    19.886326    9.039239        True
34     57    97.401333   19.877823        True
35     58    12.991948    0.927996        True
36     59   203.290752   98.847797        True
37     61   225.528911  109.287137        True
38     63    75.196921   32.227252        True
39     70    54.333674   19.404884        True
40     71   125.739817   41.190630        True
41     72    61.929326   20.643109        True
42     73   245.873137   77.933003        True
43     76   220.543324  113.452575        True
44     77    66.796933   25.274515        True
45     79    45.044849   13.138081        True
46     80    30.519774    7.629944        True
47     84    35.183725   12.361849        True
48     89    44.177026    0.000000        True
49     90    64.168008    0.000000        True
50     91    18.497882    0.000000        True
51     92    17.336408    0.000000        True
52     94    61.511544    0.000000        True
53     97    35.928025    0.000000        True
54     98    60.658088    0.000000        True
55     99    78.498011    0.000000        True
56    102    75.176644    0.000000        True
57    103    29.623487    0.000000        True
58    104     8.251901    0.000000        True
59    105    47.342781    0.000000        True
60    107     4.997721    0.000000        True
61    108   112.942521    0.000000        True
62    109    29.349243    0.000000        True
63    110    58.551763    0.000000        True
64    112    18.780927    0.000000        True
65    113    26.318858    0.000000        True
66    114    17.495203    0.000000        True
67    118    14.820293  683.204993        True
68    120   777.629336  215.174140        True
69    121   510.711791   52.503081        True
70    122   246.472602   12.694791        True
71    123    83.762014    1.503421        True
72    124   279.787537   60.026776        True
73    125   547.489786   87.951448        True
74    126    58.977063    5.194871        True
75    127   358.981230   34.880004        True
76    135   164.751160   40.506195        True
77    136    52.072510   17.168835        True
78    137   251.183387   91.623180        True
79    138  1069.382095  141.856808        True
80    139   612.399498   85.735930        True
81    140   413.843949  122.434617        True
82    141   137.562063   55.024825        True
83    142    55.712338   24.158447        True
84    143    90.832628   36.028584        True
85    145    23.033963   13.436479        True
86    148    63.445146   25.176645        True
87    152    17.325809    9.172487        True
88    154    66.318624    4.737045        True
89    155   181.895605   45.473901        True
90    156    79.960784   53.307189        True
91    157   126.835341  -24.956265        True
92    159    29.889113   14.944556        True
93    161    35.075625   15.032411        True
94    162    90.102867   25.440809        True
95    163     0.000000    0.437522        True
96    167   310.037057   98.934800        True
97    170   499.547226  212.551227        True
98    171   692.552162  264.015105        True
99    172    26.756422    0.000000        True
100   173   173.747070   45.694948        True
101   175   162.769363   76.760552        True
102   176     4.879259    3.903408        True
103   177    26.962933   11.555543        True
104   178   387.867420  157.542780        True
105   179    78.404376   30.726039        True
106   180    68.094463   48.302979        True
107   181    72.965730    0.000000        True
108   182   234.142317   86.575265        True
109   183    42.133574    4.213357        True
110   184   150.472434   18.259082        True
111   186    65.378717   26.566937        True
112   187    64.690523   26.287286        True
113   188   194.729265   46.496144        True
114   189     7.630058    2.180017        True
115   191   451.027340   48.884354        True
116   192   784.515051   70.606355        True
117   196    10.971941    3.291582        True
118   197    44.728987   14.562926        True
119   198    68.730065   22.552053        True
120   199    37.048907   12.702482        True
121   200    25.812346   11.472154        True
122   201    40.917588   13.971859        True
123   202    38.878128   13.300412        True
124   203    44.366623   14.788874        True
125   204    68.832278   22.944093        True
126   205     0.000000   -4.839298        True
127   206    11.681916    1.946986        True
128   208     6.503780    1.858223        True
129   209    41.136542   14.073027        True
130   211    91.951921    6.704828        True
131   214    22.306865   16.223174        True
132   215    49.703556   27.495584        True
133   216   191.569870  114.288843        True
134   217   104.902082   78.676562        True
135   218   138.461291  101.467816        True
136   220   275.144940   96.542084        True
137   221   157.111417   64.314615        True
138   222   306.406682  175.623342        True
139   223   442.971203  240.115231        True
140   224   160.527784   91.862720        True
141   225   437.805763   42.712757        True
142   227   545.085989  373.860093        True
143   228   209.222028  138.855875        True
144   229    90.661452   43.441946        True
145   231   171.246647  115.241454        True
146   232   477.322516  152.359642        True
147   233   421.686273  221.280915        True
148   234   571.015939  243.580226        True
149   235   267.580969  156.171792        True
150   238   255.660967  149.386212        True
151   243     7.200450    2.700169        True
152   245    61.106423   30.052339        True
153   246    76.301838   32.700788        True
154   247    65.461936   32.194395        True
155   248    30.281625   14.618715        True
156   249    27.718406   13.381299        True
157   319   123.803039  -25.658661        True
158   320     2.204802  -11.575208        True
159   322     2.251740   -3.659078        True
160   324    25.176237   -1.223137        True
161   526   153.018057  -36.753821        True
162   528    25.630388  -18.698326        True
163   531    14.559111    2.599841        True
164   562    50.612859   17.438886        True
165   609    32.236273    0.653438        True
166  1190    93.904501   27.307290        True
167  9002     4.228500    0.000000        True
168  9003     2.526144    0.876227        True
169  9004     0.887779    0.289044        True
170  9021     4.967024    1.631275        True
171  9022     1.505129    0.521385        True
172  9024     1.252178    0.435943        True
173  9025     0.486081    0.172829        True
174  9026     0.473123    0.168222        True
175  9031     1.795584    0.624551        True
176  9032     1.467025    0.506598        True
177  9033     1.807618    0.621668        True
178  9034     1.557694    0.542680        True
179  9035     1.590119    0.555584        True
180  9036     2.946861    0.972561        True
181  9037     1.876743    0.645761        True
182  9038     2.361855    0.814749        True
183  9041     0.953782    0.330519        True
184  9042     0.848439    0.293288        True
185  9043     1.584723    0.515035        True
186  9051    36.278009    0.000000        True
187  9052    30.300944   23.230724        True
188  9053    28.228859    0.000000        True
189  9071     1.010595    0.346773        True
190  9072     1.105588    0.379368        True
191  9121     3.693870    1.215089        True
192  9533     1.140849    0.393066        True

### Generator Data (Generator Table: net.gen)

     bus         p_mw   vm_pu  min_p_mw  max_p_mw  min_q_mvar  max_q_mvar  in_service
0      8     0.000000  1.0153       0.0    100.00      -10.00       10.00        True
1     10     0.000000  1.0205       0.0    100.00      -20.00       20.00        True
2     20     0.000000  1.0010       0.0    100.00      -20.00       20.00        True
3     63     0.000000  0.9583       0.0    100.00      -25.00       25.00        True
4     76     0.000000  0.9632       0.0    100.00       12.00       35.00        True
5     84   382.319427  1.0250       0.0    475.00     -240.00      240.00        True
6     91   155.431362  1.0520       0.0    255.00      -11.00       96.00        True
7     92   314.927461  1.0520       0.0    390.00     -153.00      153.00        True
8     98    71.551358  1.0000       0.0    168.00      -30.00       56.00        True
9    108   108.286677  0.9900       0.0    217.00      -24.00       77.00        True
10   119  1744.658115  1.0435       0.0   2030.00     -500.00     1500.00        True
11   124   222.494954  1.0233       0.0    340.00      -60.00      120.00        True
12   125     0.000000  1.0103       0.0    100.00      -25.00      200.00        True
13   138     0.000000  1.0550       0.0    100.00     -125.00      350.00        True
14   141   260.037645  1.0510       0.0    381.00      -50.00       75.00        True
15   143   746.724273  1.0435       0.0    796.00     -100.00      300.00        True
16   146    80.430251  1.0528       0.0    184.00      -15.00       35.00        True
17   147   230.002339  1.0528       0.0    317.00      -50.00      100.00        True
18   149   104.012729  1.0735       0.0    203.00      -25.00       50.00        True
19   152   399.237877  1.0535       0.0    472.00      -50.00      175.00        True
20   153   213.545299  1.0435       0.0    316.00      -50.00       90.00        True
21   156     0.000000  0.9630       0.0    100.00      -10.00       15.00        True
22   170   195.374391  0.9290       0.0    305.00      -40.00       90.00        True
23   171     0.000000  0.9829       0.0    100.00      -50.00      150.00        True
24   176   217.104855  1.0522       0.0    328.00      -45.00       90.00        True
25   177    85.304685  1.0077       0.0    184.00      -15.00       35.00        True
26   185   196.174926  1.0522       0.0    300.00      -50.00       80.00        True
27   186  1217.279979  1.0650       0.0   1300.00     -100.00      400.00        True
28   187  1139.925878  1.0650       0.0   1300.00     -100.00      400.00        True
29   190   435.210214  1.0551       0.0    575.00     -300.00      300.00        True
30   191  1929.934272  1.0435       0.0   2073.00    -1000.00     1000.00        True
31   198   394.858722  1.0150       0.0    524.00     -260.00      260.00        True
32   213   282.473966  1.0100       0.0    372.00     -150.00      150.00        True
33   220    95.027528  1.0080       0.0    200.00      -60.00       60.00        True
34   221   422.389031  1.0000       0.0    550.00     -320.00      320.00        True
35   222   247.618588  1.0500       0.0    350.00     -300.00      300.00        True
36   227   290.639232  1.0000       0.0    403.00     -300.00      300.00        True
37   230   314.313606  1.0400       0.0    445.00     -250.00      250.00        True
38   233   311.609778  1.0000       0.0    400.00     -500.00      500.00        True
39   236   563.536175  1.0165       0.0    700.00     -300.00      300.00        True
40   238   255.924233  1.0100       0.0    350.00     -200.00      200.00        True
41   239   596.561868  1.0000       0.0    650.00     -400.00      400.00        True
42   241   616.306981  1.0500       0.0    675.43     -600.00      600.00        True
43   242   153.262978  0.9930       0.0    270.00       40.00      100.00        True
44   243    87.733092  1.0100       0.0    184.00       40.00       80.00        True
45  7001   467.259298  1.0507       0.0    567.00     -210.00      210.00        True
46  7002   604.779646  1.0507       0.0    723.00     -280.00      280.00        True
47  7003  1157.851169  1.0323       0.0   1310.00     -420.00      420.00        True
48  7011   223.767096  1.0145       0.0    334.00     -100.00      100.00        True
49  7012   397.781025  1.0507       0.0    472.00     -224.00      224.00        True
50  7017   336.341634  1.0507       0.0    430.00        0.00      350.00        True
51  7023   182.826000  1.0507       0.0    285.00        0.00      120.00        True
52  7024   417.911865  1.0290       0.0    510.00     -224.00      224.00        True
53  7039   453.989468  1.0500       0.0    600.00     -200.00      200.00        True
54  7044    37.178090  1.0145       0.0    137.00        0.00       42.00        True
55  7055    43.592363  0.9967       0.0    145.00        0.00       25.00        True
56  7057   178.360552  1.0212       0.0    265.00      -90.00       90.00        True
57  7061   392.052194  1.0145       0.0    500.00     -150.00      150.00        True
58  7062   429.754739  1.0017       0.0    500.00        0.00      150.00        True
59  7071   109.319691  0.9893       0.0    216.00        0.00       87.00        True
60  7130  1257.632030  1.0507       0.0   1392.00     -100.00      600.00        True
61  7139   663.391685  1.0507       0.0    800.00     -125.00      325.00        True
62  7166   590.975574  1.0145       0.0    653.00     -200.00      300.00        True
63  9002     0.000000  0.9945       0.0    100.00       -2.00        2.00        True
64  9051     0.000000  1.0000       0.0    100.00      -17.35       17.35        True
65  9053     0.000000  1.0000       0.0    100.00      -12.80       12.83        True
66  9054    48.561605  1.0000       0.0    150.00      -38.00       38.00        True
67  9055     8.664100  1.0000       0.0    108.00       -6.00        6.00        True

### Balanced Node/External Grid (External Grid Table: net.ext_grid)

    bus   vm_pu  va_degree  in_service
0  7049  1.0507        0.0        True

### Line Data (Line Table: net.line)

     from_bus  to_bus     r_pu     x_pu   b_pu  rating_mva  parallel  in_service
0        9001    9005  0.00080  0.00348  0.000       66.23         1        True
1        9006    9007  0.05558  0.24666  0.000       56.34         1        True
2        9006    9003  0.11118  0.49332  0.000       56.34         1        True
3        9006    9003  0.11118  0.49332  0.000       56.34         1        True
4        9012    9002  0.07622  0.43286  0.000       56.34         1        True
5        9012    9002  0.07622  0.43286  0.000       56.34         1        True
6        9002    9021  0.05370  0.07026  0.000       56.34         1        True
7        9021    9023  1.10680  0.95278  0.000       56.34         1        True
8        9007    9003  0.05580  0.24666  0.000       56.34         1        True
9        9003    9044  0.07378  0.06352  0.000       56.34         1        True
10       9044    9004  0.03832  0.02894  0.000       56.34         1        True
11       9012    9121  0.23552  0.99036  0.000       56.34         1        True
12          1       5  0.00100  0.00600  0.000      519.61         1        True
13          2       6  0.00100  0.00900  0.000      194.01         1        True
14          2       8  0.00600  0.02700  0.054      473.75         1        True
15          3       7  0.00000  0.00300  0.000      378.99         1        True
16          3      19  0.00800  0.06900  0.139      181.99         1        True
17          3     150  0.00100  0.00700  0.000      201.21         1        True
18          4      16  0.00200  0.01900  1.127      854.17         1        True
19          5       9  0.00600  0.02900  0.018      158.85         1        True
20          7      12  0.00100  0.00900  0.070      252.94         1        True
21          7     131  0.00100  0.00700  0.014      131.70         1        True
22          8      11  0.01300  0.05950  0.033       56.34         1        True
23          8      14  0.01300  0.04200  0.081      393.32         1        True
24          9      11  0.00600  0.02700  0.013       56.34         1        True
25         11      13  0.00800  0.03400  0.018      191.35         1        True
26         12      21  0.00200  0.01500  0.118      551.22         1        True
27         13      20  0.00600  0.03400  0.016      120.41         1        True
28         14      15  0.01400  0.04200  0.097      187.10         1        True
29         15      37  0.06500  0.24800  0.121       56.34         1        True
30         15      89  0.09900  0.24800  0.035       56.34         1        True
31         15      90  0.09600  0.36300  0.048       56.34         1        True
32         16      42  0.00200  0.02200  1.280      529.21         1        True
33         19      21  0.00200  0.01800  0.036       83.03         1        True
34         19      87  0.01300  0.08000  0.151      251.03         1        True
35         20      22  0.01600  0.03300  0.015       56.34         1        True
36         20      27  0.06900  0.18600  0.098       56.34         1        True
37         21      24  0.00400  0.03400  0.280      295.95         1        True
38         22      23  0.05200  0.11100  0.050      120.33         1        True
39         23      25  0.01900  0.03900  0.018      158.81         1        True
40         24     319  0.00700  0.06800  0.134      150.16         1        True
41         25      26  0.03600  0.07100  0.034       98.48         1        True
42         26      27  0.04500  0.12000  0.065       57.61         1        True
43         26     320  0.04300  0.13000  0.014       56.34         1        True
44         33      38  0.00250  0.01200  0.013      108.07         1        True
45         33      40  0.00600  0.02900  0.020       60.70         1        True
46         33      41  0.00700  0.04300  0.026       85.32         1        True
47         34      42  0.00100  0.00800  0.042      149.14         1        True
48         35      72  0.01200  0.06000  0.008       64.62         1        True
49         35      76  0.00600  0.01400  0.002      144.56         1        True
50         35      77  0.01000  0.02900  0.003       60.88         1        True
51         36      88  0.00400  0.02700  0.043      147.01         1        True
52         37      38  0.00800  0.04700  0.008       63.92         1        True
53         37      40  0.02200  0.06400  0.007       56.34         1        True
54         37      41  0.01000  0.03600  0.020       56.34         1        True
55         37      49  0.01700  0.08100  0.048      239.90         1        True
56         37      89  0.10200  0.25400  0.033       56.34         1        True
57         37      90  0.04700  0.12700  0.016       56.34         1        True
58         38      41  0.00800  0.03700  0.020      132.13         1        True
59         38      43  0.03200  0.08700  0.040      107.73         1        True
60         39      42  0.00060  0.00640  0.404      625.34         1        True
61         40      48  0.02600  0.15400  0.022       56.34         1        True
62         41      49  0.06500  0.19100  0.020       88.38         1        True
63         41      51  0.03100  0.08900  0.036       57.05         1        True
64         42      46  0.00200  0.01400  0.806      724.60         1        True
65         43      44  0.02600  0.07200  0.035       56.34         1        True
66         43      48  0.09500  0.26200  0.032       56.34         1        True
67         43      53  0.01300  0.03900  0.016       56.34         1        True
68         44      47  0.02700  0.08400  0.039      141.96         1        True
69         44      54  0.02800  0.08400  0.037       56.34         1        True
70         45      60  0.00700  0.04100  0.312      279.42         1        True
71         45      74  0.00900  0.05400  0.411      302.70         1        True
72         46      81  0.00500  0.04200  0.690      416.45         1        True
73         47      73  0.05200  0.14500  0.073       56.34         1        True
74         47     113  0.04300  0.11800  0.013       56.34         1        True
75         48     107  0.02500  0.06200  0.007       56.34         1        True
76         49      51  0.03100  0.09400  0.043      133.82         1        True
77         51      52  0.03700  0.10900  0.049       83.42         1        True
78         52      55  0.02700  0.08000  0.036       56.34         1        True
79         53      54  0.02500  0.07300  0.035       56.34         1        True
80         54      55  0.03500  0.10300  0.047       88.46         1        True
81         55      57  0.06500  0.16900  0.082       57.16         1        True
82         57      58  0.04600  0.08000  0.036       56.34         1        True
83         57      63  0.15900  0.53700  0.071       56.34         1        True
84         58      59  0.00900  0.02600  0.005       56.34         1        True
85         59      61  0.00200  0.01300  0.015      325.26         1        True
86         60      62  0.00900  0.06500  0.485      285.66         1        True
87         62      64  0.01600  0.10500  0.203      247.90         1        True
88         62     144  0.00100  0.00700  0.013      137.00         1        True
89         63     526  0.02650  0.17200  0.026      190.13         1        True
90         69     211  0.05100  0.23200  0.028       56.34         1        True
91         69      79  0.05100  0.15700  0.023       56.34         1        True
92         70      71  0.03200  0.10000  0.062      105.51         1        True
93         70     528  0.02000  0.12340  0.028       56.34         1        True
94         71      72  0.03600  0.13100  0.068       56.34         1        True
95         71      73  0.03400  0.09900  0.047       75.95         1        True
96         72      77  0.01800  0.08700  0.011       64.72         1        True
97         72     531  0.02560  0.19300  0.000       56.34         1        True
98         73      76  0.02100  0.05700  0.030       56.34         1        True
99         73      79  0.01800  0.05200  0.018       56.34         1        True
100        74      88  0.00400  0.02700  0.050      138.03         1        True
101        74     562  0.02860  0.20130  0.379       65.76         1        True
102        76      77  0.01600  0.04300  0.004       87.88         1        True
103        77      78  0.00100  0.00600  0.007      327.98         1        True
104        77      80  0.01400  0.07000  0.038       56.34         1        True
105        77     552  0.08910  0.26760  0.029       56.34         1        True
106        77     609  0.07820  0.21270  0.022       56.34         1        True
107        78      79  0.00600  0.02200  0.011      109.56         1        True
108        78      84  0.00000  0.03600  0.000      437.81         1        True
109        79     211  0.09900  0.37500  0.051       56.34         1        True
110        80     211  0.02200  0.10700  0.058       56.34         1        True
111        81     194  0.00350  0.03300  0.530      128.91         1        True
112        81     195  0.00350  0.03300  0.530      161.27         1        True
113        85      86  0.00800  0.06400  0.128      122.93         1        True
114        86      87  0.01200  0.09300  0.183      157.26         1        True
115        86     323  0.00600  0.04800  0.092       56.34         1        True
116        89      91  0.04700  0.11900  0.014       56.34         1        True
117        90      92  0.03200  0.17400  0.024       71.13         1        True
118        91      94  0.10000  0.25300  0.031       56.34         1        True
119        91      97  0.02200  0.07700  0.039      125.94         1        True
120        92     103  0.01900  0.14400  0.017       98.85         1        True
121        92     105  0.01700  0.09200  0.012      178.56         1        True
122        94      97  0.27800  0.42700  0.043       56.34         1        True
123        97     100  0.02200  0.05300  0.007       56.34         1        True
124        97     102  0.03800  0.09200  0.012       56.34         1        True
125        97     103  0.04800  0.12200  0.015       56.34         1        True
126        98     100  0.02400  0.06400  0.007       56.34         1        True
127        98     102  0.03400  0.12100  0.015       56.34         1        True
128        99     107  0.05300  0.13500  0.017       65.22         1        True
129        99     108  0.00200  0.00400  0.002       56.34         1        True
130        99     109  0.04500  0.35400  0.044       56.34         1        True
131        99     110  0.05000  0.17400  0.022       58.52         1        True
132       100     102  0.01600  0.03800  0.004       56.34         1        True
133       102     104  0.04300  0.06400  0.027       63.92         1        True
134       103     105  0.01900  0.06200  0.008       56.34         1        True
135       104     108  0.07600  0.13000  0.044       56.34         1        True
136       104     322  0.04400  0.12400  0.015       56.34         1        True
137       105     107  0.01200  0.08800  0.011       83.52         1        True
138       105     110  0.15700  0.40000  0.047       64.99         1        True
139       108     324  0.07400  0.20800  0.026       56.34         1        True
140       109     110  0.07000  0.18400  0.021       56.34         1        True
141       109     113  0.10000  0.27400  0.031       56.34         1        True
142       109     114  0.10900  0.39300  0.036       56.34         1        True
143       110     112  0.14200  0.40400  0.050       56.34         1        True
144       112     114  0.01700  0.04200  0.006       56.34         1        True
145       115     122  0.00360  0.01990  0.004      109.02         1        True
146       116     120  0.00200  0.10490  0.001      115.81         1        True
147       117     118  0.00010  0.00180  0.017      707.57         1        True
148       118     119  0.00000  0.02710  0.000      840.07         1        True
149       118    1201  0.00000  0.61630  0.000       56.34         1        True
150      1201     120  0.00000 -0.36970  0.000       56.34         1        True
151       118     121  0.00220  0.29150  0.000       61.13         1        True
152       119     120  0.00000  0.03390  0.000      989.38         1        True
153       119     121  0.00000  0.05820  0.000      715.16         1        True
154       122     123  0.08080  0.23440  0.029       56.34         1        True
155       122     125  0.09650  0.36690  0.054       56.34         1        True
156       123     124  0.03600  0.10760  0.117       84.43         1        True
157       123     125  0.04760  0.14140  0.149       56.34         1        True
158       125     126  0.00060  0.01970  0.000      629.62         1        True
159       127     128  0.00590  0.05770  0.095      215.71         1        True
160       127     134  0.00490  0.03360  0.208      184.49         1        True
161       127     168  0.00590  0.05770  0.095      214.85         1        True
162       128     130  0.00780  0.07730  0.126      294.10         1        True
163       128     133  0.00260  0.01930  0.030       77.07         1        True
164       129     130  0.00760  0.07520  0.122      291.52         1        True
165       129     133  0.00210  0.01860  0.030      124.60         1        True
166       130     132  0.00160  0.01640  0.026      360.76         1        True
167       130     151  0.00170  0.01650  0.026      221.81         1        True
168       130     167  0.00790  0.07930  0.127      351.78         1        True
169       130     168  0.00780  0.07840  0.125      295.62         1        True
170       133     137  0.00170  0.01170  0.289      903.85         1        True
171       133     168  0.00260  0.01930  0.030       74.09         1        True
172       133     169  0.00210  0.01860  0.030      169.39         1        True
173       134     135  0.00430  0.02930  0.180       97.20         1        True
174       134     184  0.00390  0.03810  0.258      100.28         1        True
175       135     136  0.00910  0.06230  0.385      308.18         1        True
176       136     137  0.01250  0.08900  0.540       91.35         1        True
177       136     152  0.00560  0.03900  0.953      462.93         1        True
178       137     140  0.00150  0.01140  0.284      414.01         1        True
179       137     181  0.00050  0.00340  0.021      202.57         1        True
180       137     186  0.00070  0.01510  0.126      600.61         1        True
181       137     188  0.00050  0.00340  0.021      562.18         1        True
182       139     172  0.05620  0.22480  0.081       56.34         1        True
183       140     141  0.01200  0.08360  0.123       99.08         1        True
184       140     142  0.01520  0.11320  0.684       56.34         1        True
185       140     145  0.04680  0.33690  0.519       56.34         1        True
186       140     146  0.04300  0.30310  0.463       64.25         1        True
187       140     147  0.04890  0.34920  0.538       80.99         1        True
188       140     182  0.00130  0.00890  0.119      202.46         1        True
189       141     146  0.02910  0.22670  0.342       56.34         1        True
190       142     143  0.00600  0.05700  0.767      285.01         1        True
191       143     145  0.00750  0.07730  0.119      136.60         1        True
192       143     149  0.01270  0.09090  0.135       59.79         1        True
193       145     146  0.00850  0.05880  0.087      197.00         1        True
194       145     149  0.02180  0.15110  0.223      103.44         1        True
195       146     147  0.00730  0.05040  0.074      191.02         1        True
196       152     153  0.01370  0.09570  0.141       56.34         1        True
197       153     161  0.00550  0.02880  0.190      134.28         1        True
198       154     156  0.17460  0.31610  0.040       56.34         1        True
199       154     183  0.08040  0.30540  0.045       56.96         1        True
...

### Transformer Data (Transformer Table: net.trafo)

    hv_bus  lv_bus     r_pu     x_pu  rating_mva  shift_degree tap_side  tap_neutral  tap_min  tap_max  tap_step_percent  in_service
0       37    9001  0.00006  0.00046      104.90           0.0       hv          0.0      NaN      NaN              0.82        True
1     9001    9006  0.02439  0.43682       56.34           0.0       hv          0.0      NaN      NaN              3.32        True
2     9001    9012  0.03624  0.64898       56.34           0.0       hv          0.0      NaN      NaN              2.04        True
3     9005    9051  0.01578  0.37486       56.34           0.0       hv          0.0      NaN      NaN              4.35        True
4     9005    9052  0.01578  0.37486       56.34           0.0       hv          0.0      NaN      NaN              6.09        True
5     9005    9053  0.01602  0.38046       56.34           0.0       hv          0.0      NaN      NaN              4.35        True
6     9005    9054  0.00000  0.15200       75.50           0.0       hv          0.0      NaN      NaN              4.35        True
7     9005    9055  0.00000  0.80000       56.34           0.0       hv          0.0      NaN      NaN              4.35        True
8     9053    9533  0.00000  0.75000       56.34           0.0       hv          0.0      NaN      NaN              4.17        True
9        3       1  0.00000  0.05200       70.31           0.0       hv          0.0      NaN      NaN              5.30        True
10       3       2  0.00000  0.05200       56.34           0.0       hv          0.0      NaN      NaN              4.40        True
11       4       3  0.00000  0.00500      854.17           0.0       hv          0.0      NaN      NaN              2.90        True
12       7       5  0.00000  0.03900      133.97           0.0       hv          0.0      NaN      NaN              5.20        True
13       7       6  0.00000  0.03900       56.34           0.0       hv          0.0      NaN      NaN              4.10        True
14      10      11  0.00000  0.08900       56.34           0.0       hv          0.0      NaN      NaN              4.60        True
15      12      10  0.00000  0.05300      166.68           0.0       hv          0.0      NaN      NaN              1.50        True
16      15      17  0.01940  0.03110      306.66           0.0       hv          0.0      NaN      NaN              4.39        True
17      16      15  0.00100  0.03800      367.85           0.0       hv          0.0      NaN      NaN              2.90        True
18      21      20  0.00000  0.01400      692.56           0.0       hv          0.0      NaN      NaN              4.80        True
19      24      23  0.00000  0.06400       86.96           0.0       hv          0.0      NaN      NaN              5.70        True
20      36      35  0.00000  0.04700      147.01           0.0       hv          0.0      NaN      NaN              1.00        True
21      45      44  0.00000  0.02000      300.70           0.0       hv          0.0      NaN      NaN              0.80        True
22      62      61  0.00000  0.05900      102.73           0.0       hv          0.0      NaN      NaN              2.50        True
23      64      63  0.00000  0.03800      243.32           0.0       hv          0.0      NaN      NaN              1.70        True
24      87      94  0.00000  0.04600       92.86           0.0       hv          0.0      NaN      NaN              1.50        True
25     114     207  0.00000  0.14900       56.34           0.0       hv          0.0      NaN      NaN              3.30        True
26     116     124  0.00520  0.01740      115.81           0.0       hv          0.0      NaN      NaN              1.00        True
27     121     115  0.00000  0.02800      106.73           0.0       hv          0.0      NaN      NaN              5.00        True
28     130     131  0.00000  0.01800      129.95           0.0       hv          0.0      NaN      NaN              5.22        True
29     130     150  0.00000  0.01400      195.49           0.0       hv          0.0      NaN      NaN              5.22        True
30     132     170  0.00100  0.04020      166.35           0.0       hv          0.0      NaN      NaN              5.00        True
31     141     174  0.00240  0.06030      119.53           0.0       hv          0.0      NaN      NaN              2.50        True
32     143     144  0.00000  0.08330      142.70           0.0       hv          0.0      NaN      NaN              3.50        True
33     143     148  0.00130  0.03710      286.02           0.0       hv          0.0      NaN      NaN              4.35        True
34     151     170  0.00100  0.03920      220.03           0.0       hv          0.0      NaN      NaN              5.00        True
35     153     183  0.00270  0.06390      107.66           0.0       hv          0.0      NaN      NaN              7.30        True
36     155     156  0.00080  0.02560      131.44           0.0       hv          0.0      NaN      NaN              5.00        True
37     159     117  0.00000  0.01600      612.41           0.0       hv          0.0      NaN      NaN              5.06        True
38     160     124  0.00120  0.03960       56.34           0.0       hv          0.0      NaN      NaN              2.50        True
39     163     137  0.00130  0.03842      283.02           0.0       hv          0.0      NaN      NaN              2.00        True
40     164     155  0.00090  0.02310      296.68           0.0       hv          0.0      NaN      NaN              4.40        True
41     182     139  0.00030  0.01310      190.09           0.0       hv          0.0      NaN      NaN              5.00        True
42     210     189  0.00000  0.25200       56.34           0.0       hv          0.0      NaN      NaN              3.00        True
43     196     193  0.00000  0.23700       56.34           0.0       hv          0.0      NaN      NaN              3.00        True
44     195     212  0.00080  0.03660      157.19           0.0       hv          0.0      NaN      NaN              1.50        True
45      69     201  0.00000  0.09800       61.13           0.0       hv          0.0      NaN      NaN              3.00        True
46     211     202  0.00000  0.12800       56.34           0.0       hv          0.0      NaN      NaN              1.00        True
47    2040     204  0.02002  0.20412       56.34           0.0       hv          0.0      NaN      NaN              5.00        True
48     198     209  0.02600  0.21100       60.13           0.0       hv          0.0      NaN      NaN              3.00        True
49     219     218  0.00100  0.03540      222.33           0.0       hv          0.0      NaN      NaN              3.00        True
50     229     230  0.00100  0.03320      429.93           0.0       hv          0.0      NaN      NaN              2.00        True
51     234     236  0.00050  0.01600      802.50           0.0       hv          0.0      NaN      NaN              7.00        True
52     238     239  0.00050  0.01600      686.00           0.0       hv          0.0      NaN      NaN              2.00        True
53     119    1190  0.00100  0.02300      131.60           0.0       hv          0.0      NaN      NaN              2.23        True
54     120    1200  0.00000  0.02300      133.12           0.0       hv          0.0      NaN      NaN              7.16        True
55      62    7062  0.00000  0.03214      506.70           0.0       hv          0.0      NaN      NaN              5.00        True
56      17    7017  0.00000  0.01654      482.50           0.0       hv          0.0      NaN      NaN              5.80        True
57      39    7039  0.00000  0.03159      625.34           0.0       hv          0.0      NaN      NaN              3.50        True
58      57    7057  0.00000  0.05347      207.06           0.0       hv          0.0      NaN      NaN              5.00        True
59      44    7044  0.00000  0.18181       56.34           0.0       hv          0.0      NaN      NaN              5.80        True
60      55    7055  0.00000  0.19607       56.60           0.0       hv          0.0      NaN      NaN              5.80        True
61      71    7071  0.00000  0.06896      147.72           0.0       hv          0.0      NaN      NaN              4.35        True

## Task
Load case300 and set the active load at bus 123 to 102,200 kw.

## Reasoning Instructions
Before producing the final JSON, reason step by step:
1. Which buses does the request refer to (display ids, slack bus, load and generator buses)?
2. Which lines/branches are involved (from_bus-to_bus, line_id convention)?
3. Which quantities and units are asked for (MW, Mvar, p.u., degrees, % loading)?
4. What changes with respect to the base case, and which power balance must hold?
Write the reasoning first, then the final JSON as the last part of the response.

## Operations
The solver operations available to a tool-based assistant, for the `formulation` field of your answer (* = required argument). You cannot call them here; you declare which ones the request needs, then compute the results yourself from the data above.

- load_case(case_name: string in {case14, case30, case57, case118, case300}*): Load IEEE test case.
- run_powerflow((none)): Run power flow on current case.
- disconnect_line(from_bus: integer*, to_bus: integer*): Disconnect line/branch between two buses and recompute.
- reconnect_line(from_bus: integer*, to_bus: integer*): Reconnect line/branch between two buses and recompute.
- get_most_loaded_branch((none)): Get most loaded branch.
- run_n1_contingency(top_k: integer (How many worst outages to return), criteria: string in {max_violations, max_overload, min_voltage} (Ranking criterion), max_candidates: integer (How many branches to scan; 0 scans every branch of the network. Leave 0 unless the request asks to limit the scan)): Run N-1 contingency analysis.
- recommend_remedial_actions(max_actions: integer, allow_load_shed: boolean, allow_voltage_control: boolean, include_best_comparison: boolean): Recommend remedial actions.
- apply_remedial_action(action_index: integer*, confirmed: boolean): Apply one remedial action by index.
- get_status((none)): Get current network status.
- generate_plot(plot_type: string in {voltage_heatmap, flow_diagram, violation_overview, comparison}*): Generate one plot.
- set_active_load(bus_id: integer*, p_mw: number*): Set a bus's active load (MW) and recompute. Use this when the request states only an active-power value. This tool has no reactive-power argument: the bus's present reactive load is always left unchanged. If the request also states a reactive-power value, use set_load instead.
- set_load(bus_id: integer*, p_mw: number*, q_mvar: number*): Set a bus's active and reactive load (MW, Mvar) and recompute. Use this only when the request states both values. If the request states only an active-power value, use set_active_load instead -- do not invent a reactive-power value here to fill this in.

## Output Requirements
Reply with exactly one JSON object and nothing else (no prose before or after, no Markdown fences), with these fields, all present:

{
  "formulation": [{"tool": "load_case", "args": {"case_name": "case14"}}, {"tool": "run_powerflow", "args": {}}],
  "converged": true,
  "summary": "one sentence on what was done and the state of the network",
  "answer": "the specific thing the request asked for, with its numbers (e.g. 'Worst outage: line 1-5, 9 voltage violations' or 'Lowest voltage: bus 14 at 1.0357 p.u.')",
  "bus_voltages": [{"bus_id": 1, "vm_pu": 1.06, "va_deg": 0.0}],
  "line_flows": [{"line_id": 0, "from_bus": 1, "to_bus": 2, "p_from_mw": 156.9, "loading_percent": 44.8}],
  "total_generation_mw": 0.0,
  "total_load_mw": 0.0,
  "total_loss_mw": 0.0,
  "violations": {"voltage": [{"bus_id": 1, "vm_pu": 1.06}], "thermal": [{"line_id": 0, "loading_percent": 101.2}]},
  "next_step": "one suggested next action for the operator",
  "cannot_answer": null
}

- `formulation` is the ordered list of solver operations the request needs, using only the operation names and argument names of the operations catalogue: with tools, the operations you actually ran; without tools, the operations a solver-based assistant would run. Copy identifiers and values from the request; do not add arguments the request does not give.
- `bus_voltages` covers every bus of the network state you are reporting (the state after the last change; for a contingency scan, the base case the scan was run on), one entry per bus, `bus_id` in MATPOWER 1-based numbering; `line_flows` covers every branch, `line_id` as the branch index (transformers: 100000 + transformer index), with `from_bus` and `to_bus`.
- Voltage limits are 0.95 to 1.05 p.u.; a line is overloaded above 100 % loading. List the violations of the reported state.
- All numbers are finite (no NaN or Infinity). Copy them from the solver outputs when you have tools; otherwise they are your own computation on the data above.
- If you could not complete the request: `converged` false, empty arrays, zeros in the totals, and the reason in `cannot_answer` (a string); otherwise `cannot_answer` is null.

[assistant]
{
  "formulation": [
    {
      "tool": "load_case",
      "args": {
        "case_name": "case300"
      }
    },
    {
      "tool": "set_active_load",
      "args": {
        "bus_id": 123,
        "p_mw": 102.2
      }
    }
  ],
  "converged": false,
  "summary": "Bus 123 was interpreted as MATPOWER bus 123; its active load would be changed from 83.762014 MW to 102.2 MW while retaining 1.503421 Mvar, with bus 7049 as the slack bus.",
  "answer": "The requested load setting is 102.2 MW at bus 123, an increase of 18.437986 MW, but the resulting AC power-flow state could not be calculated without a numerical nonlinear solver.",
  "bus_voltages": [],
  "line_flows": [],
  "total_generation_mw": 0.0,
  "total_load_mw": 0.0,
  "total_loss_mw": 0.0,
  "violations": {
    "voltage": [],
    "thermal": []
  },
  "next_step": "Run the declared case300 load and set_active_load operations in an AC power-flow solver, then export all bus voltages, branch flows, losses, and violations.",
  "cannot_answer": "A converged 300-bus AC power flow requires solving a large nonlinear system numerically. No solver is available here, so complete finite results for every bus and branch cannot be produced reliably without fabricating values."
}
